TEST_N_VLN_Node.Txt

LINE-GROUND and LINE-LINE VOLTAGES BY BUS & NODE

Bus  Node    VLN (kV)   Angle      pu     Base kV    Node-Node   VLL (kV)  Angle      pu

100  1       6.3504 /_    0.0   0.99993    11.000        1-2     10.999 /_   30.0   0.99993
   - 2       6.3504 /_ -120.0   0.99993    11.000        2-3     10.999 /_  -90.0   0.99993
   - 3       6.3504 /_  120.0   0.99993    11.000        3-1     10.999 /_  150.0   0.99993
200  1       6.3234 /_    0.0   0.99567    11.000        1-2     10.952 /_   30.0   0.99567
   - 2       6.3234 /_ -120.0   0.99567    11.000        2-3     10.952 /_  -90.0   0.99567
   - 3       6.3234 /_  120.0   0.99567    11.000        3-1     10.952 /_  150.0   0.99567
